;*****************************************************
;*             Generated from MIKE+            *
;*****************************************************

[TITLE]

[JUNCTIONS]
;------------------------------------------------------
;ID                 Elevation    Demand       Pattern
;------------------------------------------------------
10337              97.437662    
10480              46.827427    
10483              60.751313    
10484              75.180449    
10486              75.505249    
10487              111.190941   
10492              111.026902   
10496              107.355643   
10503              111.624012   
10577              57.660764    
11194              110.872699   
11196              114.143702   
11362              83.982938    
11369              86.440289    
11370              87.089895    
11498              133.458010   
11508              133.402229   
11836              115.085299   
11837              115.124672   
11987              85.990811    
11989              86.525588    
11990              88.057743    
12110              88.428475    
12121              86.945536    
12129              96.981626    
12130              89.173229    
12131              89.127298    
12141              87.047243    
12142              120.662729   
12145              123.067591   
12147              122.263776   
12192              104.399603   
12193              104.311026   
13308              106.181097   
13576              88.917320    
13577              88.841865    
13578              88.267714    
13582              96.673227    
13599              63.822176    
13601              79.238847    
13602              72.040683    
13618              74.219159    
13621              87.250656    
13623              87.263778    
13627              81.515750    
13628              129.297900   
13631              128.953413   
13634              81.561682    
13679              122.608262   
13680              122.867457   
13682              123.024938   
13689              122.365488   
13693              124.606298   
13705              92.916664    
13706              86.394358    
13707              99.051837    
13712              126.141738   
13715              124.858921   
13716              120.764429   
13831              116.863514   
13904              46.755251    
14559              83.677819    
19707              75.436352    
19712              75.823491    
19713              119.937661   
19717              118.011815   
19721              117.155511   
19727              105.711944   
19731              104.199476   
19739              118.526899   
20013796           89.993439    
20684              130.997380   
20707              131.689632   
20709              132.201438   
20710              116.650263   
20721              116.194227   
20800              89.347112    
20807              116.473095   
20874              113.146324   
20880              105.416668   
20884              105.977684   
20889              105.049216   
20890              99.990155    
20895              90.485564    
20897              121.056427   
20905              102.956038   
20911              78.375984    
20912              98.707351    
20916              110.620076   
20917              97.319554    
20921              92.598428    
20949              80.813648    
20953              71.578082    
20956              68.940290    
20970              68.310365    
20987              70.606955    
21002              66.023624    
21004              66.026903    
21017              66.256561    
21018              91.213911    
21050              88.169293    
21054              85.561025    
21066              84.350391    
21068              84.094488    
21071              61.538714    
21086              62.417978    
21087              84.301180    
21100              83.133204    
21117              82.572176    
21124              49.196194    
21141              79.940942    
21152              82.529530    
21156              85.360891    
21176              86.676511    
21198              90.134513    
21202              96.154857    
21215              88.894355    
21259              92.450790    
21275              63.192256    
21288              71.768373    
21290              71.912732    
21295              74.665352    
21309              75.400264    
21324              85.521652    
21329              89.504594    
21364              61.292648    
21378              92.011155    
21381              88.900919    
21386              92.001312    
21395              105.334642   
21396              100.088583   
21397              98.166009    
21405              92.178480    
21429              94.527560    
21440              106.384510   
21448              116.853676   
21450              117.178476   
21451              117.155511   
21452              125.003287   
21477              90.275593    
21481              93.982939    
21503              121.010495   
21512              128.241474   
21556              129.524279   
21569              64.721126    
21602              66.358267    ;Rytterkar
21617              67.083335    
21648              91.184381    
21657              90.321525    
21722              88.841865    
21746              88.792648    
21770              81.709320    
21784              86.095802    
21790              81.797898    
21797              123.973093   
21798              81.502622    
21801              81.486220    
21815              126.082678   
21821              93.195539    
21839              126.197507   
21856              123.976372   
21870              99.294617    
21886              99.337270    
21959              112.959319   
21978              102.805115   
21997              110.157481   
22008              115.006564   
22018              110.406826   
22046              116.282811   
22379              98.353020    
22489              53.894357    
22960              88.523623    
23138              83.776246    
24347              120.308393   
25242              90.859581    
7064               119.809716   
7070               106.210634   
7071               105.708665   
7073               105.301839   
7074               117.398297   
7081               104.583336   
7082               118.641728   
7998               97.723095    
8067               130.052491   
8072               124.655508   
8073               130.144355   
8076               128.946855   
8081               125.994094   
8090               123.851706   
8096               123.585954   
8097               122.011152   
8103               124.311022   
8104               131.551838   
8113               131.797903   
8114               131.666667   
8117               132.089900   
8123               131.663388   
8394               119.078078   
8399               119.156825   
8400               113.182418   
8405               114.143702   
8406               106.322183   
8409               100.475722   
8410               103.103676   
8412               96.397638    
8413               103.946852   
8415               91.138449    
8426               92.690291    
8427               86.450132    
8428               85.570869    
8429               79.849079    
8431               81.742129    
8432               86.916012    
8433               87.152228    
8434               115.272304   
8435               111.804459   
8436               112.949469   
8437               116.056432   
8438               121.000658   
8440               120.098422   
8441               119.028867   
8442               119.727690   
8443               121.181105   
8444               117.874020   
8445               119.133859   
8446               117.017716   
8447               117.224408   
8448               90.111547    
8450               98.822179    
8457               93.024935    
8458               88.556432    
8460               92.952758    
8462               86.820864    
8463               105.531497   
8464               105.652884   
8466               103.392388   
8467               97.627953    
8469               105.590545   
8472               104.675199   
8473               104.265094   
8474               99.872047    
8476               99.648947    
8478               98.428476    
8479               100.531497   
8481               101.496066   
8484               106.640425   
8486               107.388446   
8487               84.376642    
8503               83.950129    
8504               78.313651    
8523               77.979001    
8524               72.112859    
8540               71.722441    
8550               73.809054    
8553               70.682417    
8556               67.440944    
8561               66.981628    
8562               68.097115    
8565               68.238188    
8566               67.798559    
8579               70.672573    
8580               67.234252    
8593               66.906167    
8598               68.280841    
8601               66.427165    
8604               65.951441    
8605               65.892387    
8609               66.706039    
8610               66.053148    
8615               65.826769    
8616               60.213257    
8618               59.986878    
8619               79.586612    
8622               79.632544    
8637               77.818241    
8638               80.288714    
8645               78.251312    
8646               73.697504    
8659               73.444881    
8663               74.619421    
8669               73.963257    
8670               77.923227    
8674               74.940942    
8675               80.177164    
8679               80.203409    
8682               73.953413    
8687               70.068899    
8692               68.179134    
8695               76.085958    
8702               84.767060    
8705               84.284779    
8706               84.130576    
8712               63.106957    
8715               62.349080    
8721               47.427823    
8722               84.347112    
8724               85.823492    
8725               84.734251    
8727               83.425195    
8728               84.192916    
8730               85.285436    
8731               61.955383    
8738               51.072836    
8739               84.291337    
8744               83.576119    
8745               81.492784    
8746               80.980973    
8747               82.595142    
8749               82.854330    
8750               82.604985    
8752               82.280185    
8753               82.575461    
8755               82.595142    
8756               47.076772    
8760               81.807741    
8762               82.230968    
8763               83.389107    
8768               82.847772    
8769               82.752623    
8775               82.385171    
8779               87.014434    
8795               98.618766    
8811               88.733594    
8813               89.685041    
8815               88.231626    
8816               92.477035    
8819               90.531496    
8820               93.293966    
8823               90.183730    
8824               91.079395    
8826               91.637138    
8829               86.456691    
8830               90.570869    
8833               87.706692    
8834               91.230312    
8836               92.913385    
8837               96.502623    
8849               65.285434    
8854               65.482282    
8855               67.103015    
8873               69.632549    
8874               61.492782    
8878               58.428478    
8880               57.437664    
8881               73.310365    
8884               74.307743    
8892               70.344488    
8893               74.389763    
8899               78.608921    
8903               80.219817    
8904               81.643702    
8907               87.119425    
8911               76.062992    
8912               82.125983    
8913               82.227689    
8914               88.054464    
8919               77.759187    
8920               88.608922    
8927               97.995405    
8928               72.198164    
8931               71.781495    
8932               69.632549    
8934               69.091207    
8935               60.823489    
8939               72.224409    
8940               92.030842    
8942               100.479001   
8944               108.759848   
8947               103.999342   
8948               98.845145    
8949               95.948165    
8950               100.006563   
8953               103.969818   
8954               86.958659    
8955               87.034120    
8956               84.009189    
8972               82.368769    
8973               84.747373    
8975               84.895011    
8978               82.267063    
8979               99.931101    
8981               100.337927   
8985               92.900262    
8986               61.194227    
8989               95.636482    
8993               97.847767    
8994               95.101704    
9000               105.761155   
9001               112.821524   
9003               125.029531   
9006               125.045927   
9029               129.534116   
9030               90.019684    
9033               82.526245    
9034               91.040028    
9035               93.894355    
9036               90.882547    
9038               97.513124    
9041               99.356957    
9042               100.469157   
9043               99.330706    
9044               100.075460   
9046               100.984254   
9047               105.078740   
9048               105.124671   
9049               104.104334   
9051               103.093833   
9052               106.876641   
9055               105.436355   
9056               124.996716   
9071               129.803147   
9072               107.221128   
9073               107.785435   
9074               109.832681   
9075               110.662728   
9076               121.279526   
9077               122.890422   
9080               122.519691   
9091               113.323492   
9094               118.458002   
9095               115.436356   
9097               122.244089   
9100               124.681753   
9101               64.268375    
9110               67.011152    
9111               129.527558   
9114               66.305771    
9120               68.546587    
9121               66.630577    
9125               65.748034    
9126               65.692260    
9129               65.875986    
9130               65.997373    
9134               65.954727    
9135               67.024281    
9137               67.011152    
9138               67.106301    
9157               66.135174    
9158               67.549215    
9168               65.223094    
9169               90.347769    
9180               93.471128    
9181               86.433725    
9183               90.206696    
9186               65.702097    
9193               61.466537    
9204               85.984253    
9205               90.925199    
9208               92.893698    
9210               92.965881    
9211               94.048558    
9213               94.081367    
9214               94.960631    
9217               94.550526    
9218               95.324804    
9221               96.656826    
9223               96.742124    
9224               98.428476    
9227               98.175852    
9228               98.595801    
9231               98.589236    
9232               98.608923    
9235               98.618766    
9237               98.618766    
9269               98.494094    
9271               98.566271    
9272               97.329398    
9274               97.624674    
9275               97.125985    
9277               97.076774    
9278               91.725722    
9281               91.735566    
9282               96.538711    
9285               96.496065    
9286               94.937665    
9288               94.967189    
9289               94.117455    
9292               94.163387    
9293               86.548554    
9300               85.488843    
9301               83.635173    
9303               83.953414    
9304               81.929134    
9307               82.582019    
9309               82.582019    
9310               81.525594    
9313               81.807741    
9314               84.094488    
9317               83.326774    
9332               83.838585    
9333               81.574804    
9342               82.194880    
9343               84.032155    
9346               84.662074    
9347               123.910766   
9348               123.608920   
9351               83.772967    
9352               82.975723    
9355               83.585956    
9356               83.028213    
9359               82.227689    
9362               82.076772    
9363               128.897632   
9383               127.926511   
9384               81.502622    
9387               81.624015    
9388               81.541995    
9393               82.165356    
9394               81.332024    
9397               81.266406    
9409               81.683069    
9410               128.234903   
9415               128.559716   
9420               127.168640   
9423               127.687004   
9430               122.775593   
9431               123.218501   
9444               122.841212   
9490               122.647636   
9497               122.470468   
9498               123.182419   
9501               93.631888    
9504               96.932415    
9505               124.744092   
9509               123.313643   
9510               124.790024   
9515               126.643706   
9516               89.812992    
9518               89.015748    
9519               89.635824    
9521               90.377299    
9522               88.159450    
9525               83.953414    
9527               85.902233    
9549               83.556432    
9552               129.662073   
9556               129.839241   
9557               128.635171   
9561               129.340552   
9596               96.833987    
9597               127.490161   
9601               128.582682   
9602               126.007223   
9604               125.958000   
9606               125.039368   
9608               126.394362   
9619               126.151576   
9623               126.866794   
9668               123.946848   
9670               126.656823   
9671               126.076120   
9674               120.675858   
9675               117.887137   
9676               122.637799   
9680               121.240153   
9681               99.333991    
9687               121.338586   
9688               120.751313   
9690               120.787408   
9691               118.015094   
9697               112.063653   
9698               118.054468   
9702               117.378610   
9703               112.021001   
9705               112.221135   
9728               115.446193   
9738               115.452751   
9748               112.952761   
9751               102.811679   
9752               96.702757    
9782               107.910101   
9784               102.637797   
9811               112.703416   
9812               111.640420   
9829               114.140423   
9830               114.488189   
9831               111.604325   
9833               112.792000   
9834               108.277554   
9835               110.183726   
9839               112.916666   
9840               108.959969   
9841               116.578087   
9843               112.506561   
9844               102.821523   
9845               96.125327    
WTP-PS-PRV-OUT     88.500000    
WTP-PU1-IN         82.020997    ;WTP
WTP-PU1-OUT        88.500000    ;WTP
WTP-PU2-IN         82.020997    ;WTP
WTP-PU2-OUT        88.582677    ;WTP
WTP-PU3-IN         82.020997    ;WTP
WTP-PU3-OUT        88.582677    ;WTP

[RESERVOIRS]
;------------------------------------------------------
;ID                Head        Pattern 
;------------------------------------------------------
WTP                82.020997                       ;Tank A

[TANKS]
;---------------------------------------------------------------------------------------------------------
;ID                Elev.        Init.        Min.         Max.         Diam.        MinVol       VolCurve
;                               Level        Level        Level
;---------------------------------------------------------------------------------------------------------

[PIPES]
;-----------------------------------------------------------------
;ID                Head               Tail               Length       Diam         Rough.       Minor        CV
;                  Node               Node
;-----------------------------------------------------------------
1447               7064               7070               487.254031   4.000000     33.528000    0.000000               ;89193
1448               7071               7073               24.713718    4.000000     33.528000    0.000000               ;89291
1449               7074               7081               489.517621   4.000000     33.528000    0.000000               ;89386
1633               8067               8072               450.189875   5.000000     33.528000    0.000000               ;103375
1635               8076               8081               254.205635   5.000000     33.528000    0.000000               ;103424
1636               8081               8090               201.723571   4.000000     33.528000    0.000000               ;103432
1637               8090               8096               22.987186    4.000000     33.528000    0.000000               ;103444
1638               8097               8103               311.432964   4.000000     33.528000    0.000000               ;103487
1639               8104               8113               277.835669   5.000000     33.528000    0.000000               ;103546
1641               8117               8123               279.407100   4.000000     33.528000    0.000000               ;103571
1692               8394               8399               243.160921   4.000000     33.528000    0.000000               ;106915
1693               8400               8405               227.915644   4.000000     33.528000    0.000000               ;106951
1694               8406               8409               115.901075   4.000000     33.528000    0.000000               ;106976
1695               8410               8412               126.132950   4.000000     33.528000    0.000000               ;107008
1698               7998               8426               181.402657   10.000000    33.528000    0.000000               ;107096
1699               8427               8428               84.990651    8.000000     33.528000    0.000000               ;107471
1700               8429               8431               76.036780    8.000000     33.528000    0.000000               ;109582
1701               8432               8433               102.698668   8.000000     33.528000    0.000000               ;117936
1702               8434               8435               144.724258   4.000000     33.528000    0.000000               ;107194
1703               8436               8437               104.777318   4.000000     33.528000    0.000000               ;107199
1705               8440               8441               102.207080   4.000000     33.528000    0.000000               ;107214
1706               8442               8443               144.332182   4.000000     33.528000    0.000000               ;107221
1707               8444               8445               143.777320   4.000000     33.528000    0.000000               ;107238
1708               8446               8447               56.447071    4.000000     33.528000    0.000000               ;107265
1710               8450               8457               364.953292   4.000000     33.528000    0.000000               ;107347
1712               8460               8462               137.467040   4.000000     33.528000    0.000000               ;107502
1713               8463               8464               33.274433    4.000000     33.528000    0.000000               ;107514
1714               8464               8466               117.412933   4.000000     33.528000    0.000000               ;107516
1716               8469               8472               79.912023    4.000000     33.528000    0.000000               ;107642
1717               8472               8473               32.032478    4.000000     33.528000    0.000000               ;107645
1718               8474               8476               18.584173    4.000000     33.528000    0.000000               ;107604
1719               8476               8478               104.149215   4.000000     33.528000    0.000000               ;107606
1720               8479               8481               136.564811   4.000000     33.528000    0.000000               ;107617
1721               8469               8484               62.641405    4.000000     33.528000    0.000000               ;107647
1722               8484               8486               98.633379    4.000000     33.528000    0.000000               ;107681
1723               8487               8503               293.351320   4.000000     33.528000    0.000000               ;107730
1724               8504               8523               337.162760   4.000000     33.528000    0.000000               ;107844
1725               8524               8540               381.866055   4.000000     33.528000    0.000000               ;107877
1729               8556               8561               107.062120   4.000000     33.528000    0.000000               ;108018
1730               8562               8565               84.335777    4.000000     33.528000    0.000000               ;108463
1731               8566               8579               222.844753   4.000000     33.528000    0.000000               ;108482
1732               8580               8593               326.458465   4.000000     33.528000    0.000000               ;108430
1733               8593               8598               129.684466   4.000000     33.528000    0.000000               ;108725
1735               8601               8604               108.757717   4.000000     33.528000    0.000000               ;108572
1736               8605               8609               109.281275   4.000000     33.528000    0.000000               ;108790
1737               8610               8615               110.402032   4.000000     33.528000    0.000000               ;108800
1738               8616               8618               6.407302     5.000000     33.528000    0.000000               ;108970
1740               8622               8637               332.543137   4.000000     33.528000    0.000000               ;109375
1741               8638               8645               123.979686   4.000000     33.528000    0.000000               ;109747
1742               8646               8659               335.840697   4.000000     33.528000    0.000000               ;109476
1744               8663               8669               180.028470   6.000000     33.528000    0.000000               ;109675
1745               8670               8674               474.544459   4.000000     33.528000    0.000000               ;110021
1748               8682               8687               332.242262   5.000000     33.528000    0.000000               ;110100
1749               8687               8692               483.496789   4.000000     33.528000    0.000000               ;110106
1751               8695               8646               170.916058   4.000000     33.528000    0.000000               ;110135
1752               8702               8705               83.476578    4.000000     33.528000    0.000000               ;110317
1754               8712               8715               60.947179    5.000000     33.528000    0.000000               ;110506
1755               8715               8721               619.472048   5.000000     33.528000    0.000000               ;110509
1756               8722               8724               84.946945    4.000000     33.528000    0.000000               ;110454
1757               8725               8727               89.468812    4.000000     33.528000    0.000000               ;110461
1758               8728               8730               83.447633    4.000000     33.528000    0.000000               ;110489
1759               8731               8738               527.811451   4.000000     33.528000    0.000000               ;110597
1760               8739               8744               156.957973   4.000000     33.528000    0.000000               ;110691
1761               8745               8746               80.791683    4.000000     33.528000    0.000000               ;110736
1762               8747               8749               82.654157    4.000000     33.528000    0.000000               ;110744
1763               8750               8752               123.975009   4.000000     33.528000    0.000000               ;110982
1764               8753               8755               7.402003     5.000000     33.528000    0.000000               ;110988
1766               8760               8762               132.071818   4.000000     33.528000    0.000000               ;111000
1767               8763               8768               125.022110   4.000000     33.528000    0.000000               ;111121
1768               8769               8775               88.497913    4.000000     33.528000    0.000000               ;111143
1773               8813               8815               128.717184   4.000000     33.528000    0.000000               ;111342